models/IEEE_123_Bus-G/ieee123_VLN_Node.Txt

LINE-GROUND and LINE-LINE VOLTAGES BY BUS & NODE

Bus      Node    VLN (kV)   Angle      pu     Base kV    Node-Node   VLL (kV)  Angle      pu

150 .... 1       2.4018 /_    0.0         1     4.160        1-2       4.16 /_   30.0         1
   -     2       2.4018 /_ -120.0         1     4.160        2-3       4.16 /_  -90.0         1
   -     3       2.4018 /_  120.0         1     4.160        3-1       4.16 /_  150.0         1
149 .... 1       2.4018 /_    0.0         1     4.160        1-2       4.16 /_   30.0         1
   -     2       2.4018 /_ -120.0         1     4.160        2-3       4.16 /_  -90.0         1
   -     3       2.4018 /_  120.0         1     4.160        3-1       4.16 /_  150.0         1
1 ...... 1       2.4018 /_    0.0         1     4.160        1-2       4.16 /_   30.0         1
   -     2       2.4018 /_ -120.0         1     4.160        2-3       4.16 /_  -90.0         1
   -     3       2.4018 /_  120.0         1     4.160        3-1       4.16 /_  150.0         1
7 ...... 1       2.4018 /_    0.0         1     4.160        1-2       4.16 /_   30.0         1
   -     2       2.4018 /_ -120.0         1     4.160        2-3       4.16 /_  -90.0         1
   -     3       2.4018 /_  120.0         1     4.160        3-1       4.16 /_  150.0         1
8 ...... 1       2.4018 /_    0.0         1     4.160        1-2       4.16 /_   30.0         1
   -     2       2.4018 /_ -120.0         1     4.160        2-3       4.16 /_  -90.0         1
   -     3       2.4018 /_  120.0         1     4.160        3-1       4.16 /_  150.0         1
13 ..... 1       2.4018 /_    0.0         1     4.160        1-2       4.16 /_   30.0         1
   -     2       2.4018 /_ -120.0         1     4.160        2-3       4.16 /_  -90.0         1
   -     3       2.4018 /_  120.0         1     4.160        3-1       4.16 /_  150.0         1
152 .... 1       2.4018 /_    0.0         1     4.160        1-2       4.16 /_   30.0         1
   -     2       2.4018 /_ -120.0         1     4.160        2-3       4.16 /_  -90.0         1
   -     3       2.4018 /_  120.0         1     4.160        3-1       4.16 /_  150.0         1
52 ..... 1       2.4018 /_    0.0         1     4.160        1-2       4.16 /_   30.0         1
   -     2       2.4018 /_ -120.0         1     4.160        2-3       4.16 /_  -90.0         1
   -     3       2.4018 /_  120.0         1     4.160        3-1       4.16 /_  150.0         1
53 ..... 1       2.4018 /_    0.0         1     4.160        1-2       4.16 /_   30.0         1
   -     2       2.4018 /_ -120.0         1     4.160        2-3       4.16 /_  -90.0         1
   -     3       2.4018 /_  120.0         1     4.160        3-1       4.16 /_  150.0         1
54 ..... 1       2.4018 /_    0.0         1     4.160        1-2       4.16 /_   30.0         1
   -     2       2.4018 /_ -120.0         1     4.160        2-3       4.16 /_  -90.0         1
   -     3       2.4018 /_  120.0         1     4.160        3-1       4.16 /_  150.0         1
94_OPEN  1       2.4018 /_    0.0         1     4.160
57 ..... 1       2.4018 /_    0.0         1     4.160        1-2       4.16 /_   30.0         1
   -     2       2.4018 /_ -120.0         1     4.160        2-3       4.16 /_  -90.0         1
   -     3       2.4018 /_  120.0         1     4.160        3-1       4.16 /_  150.0         1
60 ..... 1       2.4018 /_    0.0         1     4.160        1-2       4.16 /_   30.0         1
   -     2       2.4018 /_ -120.0         1     4.160        2-3       4.16 /_  -90.0         1
   -     3       2.4018 /_  120.0         1     4.160        3-1       4.16 /_  150.0         1
160 .... 1       2.4018 /_    0.0         1     4.160        1-2       4.16 /_   30.0         1
   -     2       2.4018 /_ -120.0         1     4.160        2-3       4.16 /_  -90.0         1
   -     3       2.4018 /_  120.0         1     4.160        3-1       4.16 /_  150.0         1
160R ... 1       2.4018 /_    0.0         1     4.160        1-2      4.186 /_   30.2    1.0063
   -     2       2.4318 /_ -120.0    1.0125     4.160        2-3     4.2511 /_  -89.7    1.0219
   -     3       2.4768 /_  120.0    1.0313     4.160        3-1     4.2252 /_  149.5    1.0157
67 ..... 1       2.4018 /_    0.0         1     4.160        1-2      4.186 /_   30.2    1.0063
   -     2       2.4318 /_ -120.0    1.0125     4.160        2-3     4.2511 /_  -89.7    1.0219
   -     3       2.4768 /_  120.0    1.0313     4.160        3-1     4.2252 /_  149.5    1.0157
97 ..... 1       2.4018 /_    0.0         1     4.160        1-2      4.186 /_   30.2    1.0063
   -     2       2.4318 /_ -120.0    1.0125     4.160        2-3     4.2511 /_  -89.7    1.0219
   -     3       2.4768 /_  120.0    1.0313     4.160        3-1     4.2252 /_  149.5    1.0157
197 .... 1       2.4018 /_    0.0         1     4.160        1-2      4.186 /_   30.2    1.0063
   -     2       2.4318 /_ -120.0    1.0125     4.160        2-3     4.2511 /_  -89.7    1.0219
   -     3       2.4768 /_  120.0    1.0313     4.160        3-1     4.2252 /_  149.5    1.0157
101 .... 1       2.4018 /_    0.0         1     4.160        1-2      4.186 /_   30.2    1.0063
   -     2       2.4318 /_ -120.0    1.0125     4.160        2-3     4.2511 /_  -89.7    1.0219
   -     3       2.4768 /_  120.0    1.0313     4.160        3-1     4.2252 /_  149.5    1.0157
105 .... 1       2.4018 /_    0.0         1     4.160        1-2      4.186 /_   30.2    1.0063
   -     2       2.4318 /_ -120.0    1.0125     4.160        2-3     4.2511 /_  -89.7    1.0219
   -     3       2.4768 /_  120.0    1.0313     4.160        3-1     4.2252 /_  149.5    1.0157
108 .... 1       2.4018 /_    0.0         1     4.160        1-2      4.186 /_   30.2    1.0063
   -     2       2.4318 /_ -120.0    1.0125     4.160        2-3     4.2511 /_  -89.7    1.0219
   -     3       2.4768 /_  120.0    1.0313     4.160        3-1     4.2252 /_  149.5    1.0157
300 .... 1       2.4018 /_    0.0         1     4.160        1-2      4.186 /_   30.2    1.0063
   -     2       2.4318 /_ -120.0    1.0125     4.160        2-3     4.2511 /_  -89.7    1.0219
   -     3       2.4768 /_  120.0    1.0313     4.160        3-1     4.2252 /_  149.5    1.0157
109 .... 1       2.4018 /_    0.0         1     4.160
110 .... 1       2.4018 /_    0.0         1     4.160
112 .... 1       2.4018 /_    0.0         1     4.160
113 .... 1       2.4018 /_    0.0         1     4.160
114 .... 1       2.4018 /_    0.0         1     4.160
111 .... 1       2.4018 /_    0.0         1     4.160
106 .... 2       2.4318 /_ -120.0    1.0125     4.160
107 .... 2       2.4318 /_ -120.0    1.0125     4.160
102 .... 3       2.4768 /_  120.0    1.0313     4.160
103 .... 3       2.4768 /_  120.0    1.0313     4.160
104 .... 3       2.4768 /_  120.0    1.0313     4.160
98 ..... 1       2.4018 /_    0.0         1     4.160        1-2      4.186 /_   30.2    1.0063
   -     2       2.4318 /_ -120.0    1.0125     4.160        2-3     4.2511 /_  -89.7    1.0219
   -     3       2.4768 /_  120.0    1.0313     4.160        3-1     4.2252 /_  149.5    1.0157
99 ..... 1       2.4018 /_    0.0         1     4.160        1-2      4.186 /_   30.2    1.0063
   -     2       2.4318 /_ -120.0    1.0125     4.160        2-3     4.2511 /_  -89.7    1.0219
   -     3       2.4768 /_  120.0    1.0313     4.160        3-1     4.2252 /_  149.5    1.0157
100 .... 1       2.4018 /_    0.0         1     4.160        1-2      4.186 /_   30.2    1.0063
   -     2       2.4318 /_ -120.0    1.0125     4.160        2-3     4.2511 /_  -89.7    1.0219
   -     3       2.4768 /_  120.0    1.0313     4.160        3-1     4.2252 /_  149.5    1.0157
450 .... 1       2.4018 /_    0.0         1     4.160        1-2      4.186 /_   30.2    1.0063
   -     2       2.4318 /_ -120.0    1.0125     4.160        2-3     4.2511 /_  -89.7    1.0219
   -     3       2.4768 /_  120.0    1.0313     4.160        3-1     4.2252 /_  149.5    1.0157
72 ..... 1       2.4018 /_    0.0         1     4.160        1-2      4.186 /_   30.2    1.0063
   -     2       2.4318 /_ -120.0    1.0125     4.160        2-3     4.2511 /_  -89.7    1.0219
   -     3       2.4768 /_  120.0    1.0313     4.160        3-1     4.2252 /_  149.5    1.0157
76 ..... 1       2.4018 /_    0.0         1     4.160        1-2      4.186 /_   30.2    1.0063
   -     2       2.4318 /_ -120.0    1.0125     4.160        2-3     4.2511 /_  -89.7    1.0219
   -     3       2.4768 /_  120.0    1.0313     4.160        3-1     4.2252 /_  149.5    1.0157
86 ..... 1       2.4018 /_    0.0         1     4.160        1-2      4.186 /_   30.2    1.0063
   -     2       2.4318 /_ -120.0    1.0125     4.160        2-3     4.2511 /_  -89.7    1.0219
   -     3       2.4768 /_  120.0    1.0313     4.160        3-1     4.2252 /_  149.5    1.0157
87 ..... 1       2.4018 /_    0.0         1     4.160        1-2      4.186 /_   30.2    1.0063
   -     2       2.4318 /_ -120.0    1.0125     4.160        2-3     4.2511 /_  -89.7    1.0219
   -     3       2.4768 /_  120.0    1.0313     4.160        3-1     4.2252 /_  149.5    1.0157
89 ..... 1       2.4018 /_    0.0         1     4.160        1-2      4.186 /_   30.2    1.0063
   -     2       2.4318 /_ -120.0    1.0125     4.160        2-3     4.2511 /_  -89.7    1.0219
   -     3       2.4768 /_  120.0    1.0313     4.160        3-1     4.2252 /_  149.5    1.0157
91 ..... 1       2.4018 /_    0.0         1     4.160        1-2      4.186 /_   30.2    1.0063
   -     2       2.4318 /_ -120.0    1.0125     4.160        2-3     4.2511 /_  -89.7    1.0219
   -     3       2.4768 /_  120.0    1.0313     4.160        3-1     4.2252 /_  149.5    1.0157
93 ..... 1       2.4018 /_    0.0         1     4.160        1-2      4.186 /_   30.2    1.0063
   -     2       2.4318 /_ -120.0    1.0125     4.160        2-3     4.2511 /_  -89.7    1.0219
   -     3       2.4768 /_  120.0    1.0313     4.160        3-1     4.2252 /_  149.5    1.0157
95 ..... 1       2.4018 /_    0.0         1     4.160        1-2      4.186 /_   30.2    1.0063
   -     2       2.4318 /_ -120.0    1.0125     4.160        2-3     4.2511 /_  -89.7    1.0219
   -     3       2.4768 /_  120.0    1.0313     4.160        3-1     4.2252 /_  149.5    1.0157
96 ..... 2       2.4318 /_ -120.0    1.0125     4.160
94 ..... 1       2.4018 /_    0.0         1     4.160
92 ..... 3       2.4768 /_  120.0    1.0313     4.160
90 ..... 2       2.4318 /_ -120.0    1.0125     4.160
88 ..... 1       2.4018 /_    0.0         1     4.160
77 ..... 1       2.4018 /_    0.0         1     4.160        1-2      4.186 /_   30.2    1.0063
   -     2       2.4318 /_ -120.0    1.0125     4.160        2-3     4.2511 /_  -89.7    1.0219
   -     3       2.4768 /_  120.0    1.0313     4.160        3-1     4.2252 /_  149.5    1.0157
78 ..... 1       2.4018 /_    0.0         1     4.160        1-2      4.186 /_   30.2    1.0063
   -     2       2.4318 /_ -120.0    1.0125     4.160        2-3     4.2511 /_  -89.7    1.0219
   -     3       2.4768 /_  120.0    1.0313     4.160        3-1     4.2252 /_  149.5    1.0157
80 ..... 1       2.4018 /_    0.0         1     4.160        1-2      4.186 /_   30.2    1.0063
   -     2       2.4318 /_ -120.0    1.0125     4.160        2-3     4.2511 /_  -89.7    1.0219
   -     3       2.4768 /_  120.0    1.0313     4.160        3-1     4.2252 /_  149.5    1.0157
81 ..... 1       2.4018 /_    0.0         1     4.160        1-2      4.186 /_   30.2    1.0063
   -     2       2.4318 /_ -120.0    1.0125     4.160        2-3     4.2511 /_  -89.7    1.0219
   -     3       2.4768 /_  120.0    1.0313     4.160        3-1     4.2252 /_  149.5    1.0157
84 ..... 3       2.4768 /_  120.0    1.0313     4.160
85 ..... 3       2.4768 /_  120.0    1.0313     4.160
82 ..... 1       2.4018 /_    0.0         1     4.160        1-2      4.186 /_   30.2    1.0063
   -     2       2.4318 /_ -120.0    1.0125     4.160        2-3     4.2511 /_  -89.7    1.0219
   -     3       2.4768 /_  120.0    1.0313     4.160        3-1     4.2252 /_  149.5    1.0157
83 ..... 1       2.4018 /_    0.0         1     4.160        1-2      4.186 /_   30.2    1.0063
   -     2       2.4318 /_ -120.0    1.0125     4.160        2-3     4.2511 /_  -89.7    1.0219
   -     3       2.4768 /_  120.0    1.0313     4.160        3-1     4.2252 /_  149.5    1.0157
79 ..... 1       2.4018 /_    0.0         1     4.160        1-2      4.186 /_   30.2    1.0063
   -     2       2.4318 /_ -120.0    1.0125     4.160        2-3     4.2511 /_  -89.7    1.0219
   -     3       2.4768 /_  120.0    1.0313     4.160        3-1     4.2252 /_  149.5    1.0157
73 ..... 3       2.4768 /_  120.0    1.0313     4.160
74 ..... 3       2.4768 /_  120.0    1.0313     4.160
75 ..... 3       2.4768 /_  120.0    1.0313     4.160
68 ..... 1       2.4018 /_    0.0         1     4.160
69 ..... 1       2.4018 /_    0.0         1     4.160
70 ..... 1       2.4018 /_    0.0         1     4.160
71 ..... 1       2.4018 /_    0.0         1     4.160
62 ..... 1       2.4018 /_    0.0         1     4.160        1-2       4.16 /_   30.0         1
   -     2       2.4018 /_ -120.0         1     4.160        2-3       4.16 /_  -90.0         1
   -     3       2.4018 /_  120.0         1     4.160        3-1       4.16 /_  150.0         1
63 ..... 1       2.4018 /_    0.0         1     4.160        1-2       4.16 /_   30.0         1
   -     2       2.4018 /_ -120.0         1     4.160        2-3       4.16 /_  -90.0         1
   -     3       2.4018 /_  120.0         1     4.160        3-1       4.16 /_  150.0         1
64 ..... 1       2.4018 /_    0.0         1     4.160        1-2       4.16 /_   30.0         1
   -     2       2.4018 /_ -120.0         1     4.160        2-3       4.16 /_  -90.0         1
   -     3       2.4018 /_  120.0         1     4.160        3-1       4.16 /_  150.0         1
65 ..... 1       2.4018 /_    0.0         1     4.160        1-2       4.16 /_   30.0         1
   -     2       2.4018 /_ -120.0         1     4.160        2-3       4.16 /_  -90.0         1
   -     3       2.4018 /_  120.0         1     4.160        3-1       4.16 /_  150.0         1
66 ..... 1       2.4018 /_    0.0         1     4.160        1-2       4.16 /_   30.0         1
   -     2       2.4018 /_ -120.0         1     4.160        2-3       4.16 /_  -90.0         1
   -     3       2.4018 /_  120.0         1     4.160        3-1       4.16 /_  150.0         1
61 ..... 1       2.4018 /_    0.0         1     4.160        1-2       4.16 /_   30.0         1
   -     2       2.4018 /_ -120.0         1     4.160        2-3       4.16 /_  -90.0         1
   -     3       2.4018 /_  120.0         1     4.160        3-1       4.16 /_  150.0         1
61S .... 1       2.4018 /_    0.0         1     4.160        1-2       4.16 /_   30.0         1
   -     2       2.4018 /_ -120.0         1     4.160        2-3       4.16 /_  -90.0         1
   -     3       2.4018 /_  120.0         1     4.160        3-1       4.16 /_  150.0         1
58 ..... 2       2.4018 /_ -120.0         1     4.160
59 ..... 2       2.4018 /_ -120.0         1     4.160
55 ..... 1       2.4018 /_    0.0         1     4.160        1-2       4.16 /_   30.0         1
   -     2       2.4018 /_ -120.0         1     4.160        2-3       4.16 /_  -90.0         1
   -     3       2.4018 /_  120.0         1     4.160        3-1       4.16 /_  150.0         1
56 ..... 1       2.4018 /_    0.0         1     4.160        1-2       4.16 /_   30.0         1
   -     2       2.4018 /_ -120.0         1     4.160        2-3       4.16 /_  -90.0         1
   -     3       2.4018 /_  120.0         1     4.160        3-1       4.16 /_  150.0         1
18 ..... 1       2.4018 /_    0.0         1     4.160        1-2       4.16 /_   30.0         1
   -     2       2.4018 /_ -120.0         1     4.160        2-3       4.16 /_  -90.0         1
   -     3       2.4018 /_  120.0         1     4.160        3-1       4.16 /_  150.0         1
135 .... 1       2.4018 /_    0.0         1     4.160        1-2       4.16 /_   30.0         1
   -     2       2.4018 /_ -120.0         1     4.160        2-3       4.16 /_  -90.0         1
   -     3       2.4018 /_  120.0         1     4.160        3-1       4.16 /_  150.0         1
35 ..... 1       2.4018 /_    0.0         1     4.160        1-2       4.16 /_   30.0         1
   -     2       2.4018 /_ -120.0         1     4.160        2-3       4.16 /_  -90.0         1
   -     3       2.4018 /_  120.0         1     4.160        3-1       4.16 /_  150.0         1
40 ..... 1       2.4018 /_    0.0         1     4.160        1-2       4.16 /_   30.0         1
   -     2       2.4018 /_ -120.0         1     4.160        2-3       4.16 /_  -90.0         1
   -     3       2.4018 /_  120.0         1     4.160        3-1       4.16 /_  150.0         1
42 ..... 1       2.4018 /_    0.0         1     4.160        1-2       4.16 /_   30.0         1
   -     2       2.4018 /_ -120.0         1     4.160        2-3       4.16 /_  -90.0         1
   -     3       2.4018 /_  120.0         1     4.160        3-1       4.16 /_  150.0         1
44 ..... 1       2.4018 /_    0.0         1     4.160        1-2       4.16 /_   30.0         1
   -     2       2.4018 /_ -120.0         1     4.160        2-3       4.16 /_  -90.0         1
   -     3       2.4018 /_  120.0         1     4.160        3-1       4.16 /_  150.0         1
47 ..... 1       2.4018 /_    0.0         1     4.160        1-2       4.16 /_   30.0         1
   -     2       2.4018 /_ -120.0         1     4.160        2-3       4.16 /_  -90.0         1
   -     3       2.4018 /_  120.0         1     4.160        3-1       4.16 /_  150.0         1
49 ..... 1       2.4018 /_    0.0         1     4.160        1-2       4.16 /_   30.0         1
   -     2       2.4018 /_ -120.0         1     4.160        2-3       4.16 /_  -90.0         1
   -     3       2.4018 /_  120.0         1     4.160        3-1       4.16 /_  150.0         1
50 ..... 1       2.4018 /_    0.0         1     4.160        1-2       4.16 /_   30.0         1
   -     2       2.4018 /_ -120.0         1     4.160        2-3       4.16 /_  -90.0         1
   -     3       2.4018 /_  120.0         1     4.160        3-1       4.16 /_  150.0         1
51 ..... 1       2.4018 /_    0.0         1     4.160        1-2       4.16 /_   30.0         1
   -     2       2.4018 /_ -120.0         1     4.160        2-3       4.16 /_  -90.0         1
   -     3       2.4018 /_  120.0         1     4.160        3-1       4.16 /_  150.0         1
151 .... 1       2.4018 /_    0.0         1     4.160        1-2       4.16 /_   30.0         1
   -     2       2.4018 /_ -120.0         1     4.160        2-3       4.16 /_  -90.0         1
   -     3       2.4018 /_  120.0         1     4.160        3-1       4.16 /_  150.0         1
300_OPEN 1       2.4018 /_    0.0         1     4.160        1-2       4.16 /_   30.0         1
   -     2       2.4018 /_ -120.0         1     4.160        2-3       4.16 /_  -90.0         1
   -     3       2.4018 /_  120.0         1     4.160        3-1       4.16 /_  150.0         1
48 ..... 1       2.4018 /_    0.0         1     4.160        1-2       4.16 /_   30.0         1
   -     2       2.4018 /_ -120.0         1     4.160        2-3       4.16 /_  -90.0         1
   -     3       2.4018 /_  120.0         1     4.160        3-1       4.16 /_  150.0         1
45 ..... 1       2.4018 /_    0.0         1     4.160
46 ..... 1       2.4018 /_    0.0         1     4.160
43 ..... 2       2.4018 /_ -120.0         1     4.160
41 ..... 3       2.4018 /_  120.0         1     4.160
36 ..... 1       2.4018 /_    0.0         1     4.160        1-2       4.16 /_   30.0         1
   -     2       2.4018 /_ -120.0         1     4.160
38 ..... 2       2.4018 /_ -120.0         1     4.160
39 ..... 2       2.4018 /_ -120.0         1     4.160
37 ..... 1       2.4018 /_    0.0         1     4.160
21 ..... 1       2.4018 /_    0.0         1     4.160        1-2       4.16 /_   30.0         1
   -     2       2.4018 /_ -120.0         1     4.160        2-3       4.16 /_  -90.0         1
   -     3       2.4018 /_  120.0         1     4.160        3-1       4.16 /_  150.0         1
23 ..... 1       2.4018 /_    0.0         1     4.160        1-2       4.16 /_   30.0         1
   -     2       2.4018 /_ -120.0         1     4.160        2-3       4.16 /_  -90.0         1
   -     3       2.4018 /_  120.0         1     4.160        3-1       4.16 /_  150.0         1
25 ..... 1       2.4018 /_    0.0         1     4.160        1-2       4.16 /_   30.0         1
   -     2       2.4018 /_ -120.0         1     4.160        2-3       4.16 /_  -90.0         1
   -     3       2.4018 /_  120.0         1     4.160        3-1       4.16 /_  150.0         1
25R .... 1       2.4018 /_    0.0         1     4.160
   -     3       2.4018 /_  120.0         1     4.160        3-1       4.16 /_  150.0         1
26 ..... 1       2.4018 /_    0.0         1     4.160
   -     3       2.4018 /_  120.0         1     4.160        3-1       4.16 /_  150.0         1
31 ..... 3       2.4018 /_  120.0         1     4.160
32 ..... 3       2.4018 /_  120.0         1     4.160
27 ..... 1       2.4018 /_    0.0         1     4.160
   -     3       2.4018 /_  120.0         1     4.160        3-1       4.16 /_  150.0         1
33 ..... 1       2.4018 /_    0.0         1     4.160
28 ..... 1       2.4018 /_    0.0         1     4.160        1-2       4.16 /_   30.0         1
   -     2       2.4018 /_ -120.0         1     4.160        2-3       4.16 /_  -90.0         1
   -     3       2.4018 /_  120.0         1     4.160        3-1       4.16 /_  150.0         1
29 ..... 1       2.4018 /_    0.0         1     4.160        1-2       4.16 /_   30.0         1
   -     2       2.4018 /_ -120.0         1     4.160        2-3       4.16 /_  -90.0         1
   -     3       2.4018 /_  120.0         1     4.160        3-1       4.16 /_  150.0         1
30 ..... 1       2.4018 /_    0.0         1     4.160        1-2       4.16 /_   30.0         1
   -     2       2.4018 /_ -120.0         1     4.160        2-3       4.16 /_  -90.0         1
   -     3       2.4018 /_  120.0         1     4.160        3-1       4.16 /_  150.0         1
250 .... 1       2.4018 /_    0.0         1     4.160        1-2       4.16 /_   30.0         1
   -     2       2.4018 /_ -120.0         1     4.160        2-3       4.16 /_  -90.0         1
   -     3       2.4018 /_  120.0         1     4.160        3-1       4.16 /_  150.0         1
24 ..... 3       2.4018 /_  120.0         1     4.160
22 ..... 2       2.4018 /_ -120.0         1     4.160
19 ..... 1       2.4018 /_    0.0         1     4.160
20 ..... 1       2.4018 /_    0.0         1     4.160
34 ..... 3       2.4018 /_  120.0         1     4.160
15 ..... 3       2.4018 /_  120.0         1     4.160
17 ..... 3       2.4018 /_  120.0         1     4.160
16 ..... 3       2.4018 /_  120.0         1     4.160
9 ...... 1       2.4018 /_    0.0         1     4.160
9R ..... 1       2.4018 /_    0.0         1     4.160
14 ..... 1       2.4018 /_    0.0         1     4.160
10 ..... 1       2.4018 /_    0.0         1     4.160
11 ..... 1       2.4018 /_    0.0         1     4.160
12 ..... 2       2.4018 /_ -120.0         1     4.160
3 ...... 3       2.4018 /_  120.0         1     4.160
5 ...... 3       2.4018 /_  120.0         1     4.160
6 ...... 3       2.4018 /_  120.0         1     4.160
4 ...... 3       2.4018 /_  120.0         1     4.160
2 ...... 2       2.4018 /_ -120.0         1     4.160
610 .... 1      0.27713 /_    0.0         1     0.480        1-2       0.48 /_   30.0         1
   -     2      0.27713 /_ -120.0         1     0.480        2-3       0.48 /_  -90.0         1
   -     3      0.27713 /_  120.0         1     0.480        3-1       0.48 /_  150.0         1
150R ... 1       2.4018 /_    0.0         1     4.160        1-2       4.16 /_   30.0         1
   -     2       2.4018 /_ -120.0         1     4.160        2-3       4.16 /_  -90.0         1
   -     3       2.4018 /_  120.0         1     4.160        3-1       4.16 /_  150.0         1
